
Version,
  8.7;                                    !- Version Identifier

LifeCycleCost:Parameters,
  {42bdd5d0-a763-4276-a479-b8d538016205}, !- Name
  EndOfYear,                              !- Discounting Convention
  ConstantDollar,                         !- Inflation Approach
  0.03,                                   !- Real Discount Rate
  ,                                       !- Nominal Discount Rate
  ,                                       !- Inflation
  ,                                       !- Base Date Month
  2011,                                   !- Base Date Year
  ,                                       !- Service Date Month
  2011,                                   !- Service Date Year
  25,                                     !- Length of Study Period in Years
  ,                                       !- Tax rate
  None;                                   !- Depreciation Method

LifeCycleCost:UsePriceEscalation,
  U.S. Avg  Commercial-Electricity,       !- Name
  Electricity,                            !- Resource
  2011,                                   !- Escalation Start Year
  January,                                !- Escalation Start Month
  0.9838,                                 !- Year Escalation 1
  0.9730,                                 !- Year Escalation 2
  0.9632,                                 !- Year Escalation 3
  0.9611,                                 !- Year Escalation 4
  0.9571,                                 !- Year Escalation 5
  0.9553,                                 !- Year Escalation 6
  0.9539,                                 !- Year Escalation 7
  0.9521,                                 !- Year Escalation 8
  0.9546,                                 !- Year Escalation 9
  0.9550,                                 !- Year Escalation 10
  0.9553,                                 !- Year Escalation 11
  0.9564,                                 !- Year Escalation 12
  0.9575,                                 !- Year Escalation 13
  0.9596,                                 !- Year Escalation 14
  0.9618,                                 !- Year Escalation 15
  0.9614,                                 !- Year Escalation 16
  0.9618,                                 !- Year Escalation 17
  0.9618,                                 !- Year Escalation 18
  0.9593,                                 !- Year Escalation 19
  0.9589,                                 !- Year Escalation 20
  0.9607,                                 !- Year Escalation 21
  0.9625,                                 !- Year Escalation 22
  0.9650,                                 !- Year Escalation 23
  0.9708,                                 !- Year Escalation 24
  0.9751,                                 !- Year Escalation 25
  0.9762,                                 !- Year Escalation 26
  0.9766,                                 !- Year Escalation 27
  0.9766,                                 !- Year Escalation 28
  0.9769,                                 !- Year Escalation 29
  0.9773;                                 !- Year Escalation 30

LifeCycleCost:UsePriceEscalation,
  U.S. Avg  Commercial-Distillate Oil,    !- Name
  FuelOil#1,                              !- Resource
  2011,                                   !- Escalation Start Year
  January,                                !- Escalation Start Month
  0.9714,                                 !- Year Escalation 1
  0.9730,                                 !- Year Escalation 2
  0.9942,                                 !- Year Escalation 3
  1.0164,                                 !- Year Escalation 4
  1.0541,                                 !- Year Escalation 5
  1.0928,                                 !- Year Escalation 6
  1.1267,                                 !- Year Escalation 7
  1.1580,                                 !- Year Escalation 8
  1.1792,                                 !- Year Escalation 9
  1.1967,                                 !- Year Escalation 10
  1.2200,                                 !- Year Escalation 11
  1.2333,                                 !- Year Escalation 12
  1.2566,                                 !- Year Escalation 13
  1.2709,                                 !- Year Escalation 14
  1.2826,                                 !- Year Escalation 15
  1.2985,                                 !- Year Escalation 16
  1.3102,                                 !- Year Escalation 17
  1.3250,                                 !- Year Escalation 18
  1.3261,                                 !- Year Escalation 19
  1.3282,                                 !- Year Escalation 20
  1.3324,                                 !- Year Escalation 21
  1.3356,                                 !- Year Escalation 22
  1.3431,                                 !- Year Escalation 23
  1.3510,                                 !- Year Escalation 24
  1.3568,                                 !- Year Escalation 25
  1.3606,                                 !- Year Escalation 26
  1.3637,                                 !- Year Escalation 27
  1.3674,                                 !- Year Escalation 28
  1.3706,                                 !- Year Escalation 29
  1.3743;                                 !- Year Escalation 30

LifeCycleCost:UsePriceEscalation,
  U.S. Avg  Commercial-Residual Oil,      !- Name
  FuelOil#2,                              !- Resource
  2011,                                   !- Escalation Start Year
  January,                                !- Escalation Start Month
  0.8469,                                 !- Year Escalation 1
  0.8257,                                 !- Year Escalation 2
  0.8681,                                 !- Year Escalation 3
  0.8988,                                 !- Year Escalation 4
  0.9289,                                 !- Year Escalation 5
  0.9604,                                 !- Year Escalation 6
  0.9897,                                 !- Year Escalation 7
  1.0075,                                 !- Year Escalation 8
  1.0314,                                 !- Year Escalation 9
  1.0554,                                 !- Year Escalation 10
  1.0861,                                 !- Year Escalation 11
  1.1278,                                 !- Year Escalation 12
  1.1497,                                 !- Year Escalation 13
  1.1620,                                 !- Year Escalation 14
  1.1743,                                 !- Year Escalation 15
  1.1852,                                 !- Year Escalation 16
  1.1948,                                 !- Year Escalation 17
  1.2037,                                 !- Year Escalation 18
  1.2071,                                 !- Year Escalation 19
  1.2119,                                 !- Year Escalation 20
  1.2139,                                 !- Year Escalation 21
  1.2194,                                 !- Year Escalation 22
  1.2276,                                 !- Year Escalation 23
  1.2365,                                 !- Year Escalation 24
  1.2420,                                 !- Year Escalation 25
  1.2461,                                 !- Year Escalation 26
  1.2509,                                 !- Year Escalation 27
  1.2550,                                 !- Year Escalation 28
  1.2591,                                 !- Year Escalation 29
  1.2638;                                 !- Year Escalation 30

LifeCycleCost:UsePriceEscalation,
  U.S. Avg  Commercial-Natural gas,       !- Name
  NaturalGas,                             !- Resource
  2011,                                   !- Escalation Start Year
  January,                                !- Escalation Start Month
  0.9823,                                 !- Year Escalation 1
  0.9557,                                 !- Year Escalation 2
  0.9279,                                 !- Year Escalation 3
  0.9257,                                 !- Year Escalation 4
  0.9346,                                 !- Year Escalation 5
  0.9412,                                 !- Year Escalation 6
  0.9512,                                 !- Year Escalation 7
  0.9645,                                 !- Year Escalation 8
  0.9856,                                 !- Year Escalation 9
  1.0067,                                 !- Year Escalation 10
  1.0222,                                 !- Year Escalation 11
  1.0410,                                 !- Year Escalation 12
  1.0610,                                 !- Year Escalation 13
  1.0787,                                 !- Year Escalation 14
  1.0942,                                 !- Year Escalation 15
  1.1098,                                 !- Year Escalation 16
  1.1220,                                 !- Year Escalation 17
  1.1308,                                 !- Year Escalation 18
  1.1386,                                 !- Year Escalation 19
  1.1486,                                 !- Year Escalation 20
  1.1619,                                 !- Year Escalation 21
  1.1763,                                 !- Year Escalation 22
  1.1918,                                 !- Year Escalation 23
  1.2118,                                 !- Year Escalation 24
  1.2284,                                 !- Year Escalation 25
  1.2439,                                 !- Year Escalation 26
  1.2605,                                 !- Year Escalation 27
  1.2772,                                 !- Year Escalation 28
  1.2938,                                 !- Year Escalation 29
  1.3115;                                 !- Year Escalation 30

LifeCycleCost:UsePriceEscalation,
  U.S. Avg  Commercial-Coal,              !- Name
  Coal,                                   !- Resource
  2011,                                   !- Escalation Start Year
  January,                                !- Escalation Start Month
  0.9970,                                 !- Year Escalation 1
  1.0089,                                 !- Year Escalation 2
  1.0089,                                 !- Year Escalation 3
  0.9941,                                 !- Year Escalation 4
  0.9941,                                 !- Year Escalation 5
  1.0000,                                 !- Year Escalation 6
  1.0030,                                 !- Year Escalation 7
  1.0059,                                 !- Year Escalation 8
  1.0089,                                 !- Year Escalation 9
  1.0119,                                 !- Year Escalation 10
  1.0148,                                 !- Year Escalation 11
  1.0178,                                 !- Year Escalation 12
  1.0208,                                 !- Year Escalation 13
  1.0267,                                 !- Year Escalation 14
  1.0297,                                 !- Year Escalation 15
  1.0356,                                 !- Year Escalation 16
  1.0415,                                 !- Year Escalation 17
  1.0534,                                 !- Year Escalation 18
  1.0564,                                 !- Year Escalation 19
  1.0593,                                 !- Year Escalation 20
  1.0653,                                 !- Year Escalation 21
  1.0712,                                 !- Year Escalation 22
  1.0742,                                 !- Year Escalation 23
  1.0801,                                 !- Year Escalation 24
  1.0831,                                 !- Year Escalation 25
  1.0831,                                 !- Year Escalation 26
  1.0861,                                 !- Year Escalation 27
  1.0890,                                 !- Year Escalation 28
  1.0920,                                 !- Year Escalation 29
  1.0950;                                 !- Year Escalation 30

Building,
  East entrance bldg v2,                  !- Name
  0,                                      !- North Axis {deg}
  ,                                       !- Terrain
  ,                                       !- Loads Convergence Tolerance Value
  ,                                       !- Temperature Convergence Tolerance Value {deltaC}
  ,                                       !- Solar Distribution
  ,                                       !- Maximum Number of Warmup Days
  ;                                       !- Minimum Number of Warmup Days

Zone,
  Level 0 Ceiling Plenum Zone,            !- Name
  -0,                                     !- Direction of Relative North {deg}
  0,                                      !- X Origin {m}
  0,                                      !- Y Origin {m}
  0,                                      !- Z Origin {m}
  ,                                       !- Type
  ,                                       !- Multiplier
  ,                                       !- Ceiling Height {m}
  ,                                       !- Volume {m3}
  ,                                       !- Floor Area {m2}
  ,                                       !- Zone Inside Convection Algorithm
  ,                                       !- Zone Outside Convection Algorithm
  No;                                     !- Part of Total Floor Area

BuildingSurface:Detailed,
  Level 0 Entry way  Ceiling Plenum DroppedCeiling, !- Name
  Ceiling,                                !- Surface Type
  Default interior ceiling,               !- Construction Name
  Level 0 Ceiling Plenum Zone,            !- Zone Name
  Surface,                                !- Outside Boundary Condition
  Entry way  DroppedCeiling,              !- Outside Boundary Condition Object
  NoSun,                                  !- Sun Exposure
  NoWind,                                 !- Wind Exposure
  ,                                       !- View Factor to Ground
  ,                                       !- Number of Vertices
  3.81953802092616, 1.71780844593706, 3.3528, !- X,Y,Z Vertex 1 {m}
  4.5517885588319, 3.12873898197307, 3.3528, !- X,Y,Z Vertex 2 {m}
  3.58098410934131, 6.59527952160355, 3.3528, !- X,Y,Z Vertex 3 {m}
  2.01619547202773, 7.39974280298822, 3.3528, !- X,Y,Z Vertex 4 {m}
  1.05119693504892, 5.80050051033377, 3.3528, !- X,Y,Z Vertex 5 {m}
  1.87972377997297, 2.70489411795832, 3.3528; !- X,Y,Z Vertex 6 {m}

BuildingSurface:Detailed,
  Level 0 Entry way  Ceiling Plenum RoofCeiling, !- Name
  Roof,                                   !- Surface Type
  Calibrated Exterior EXTERIOR-ROOF,      !- Construction Name
  Level 0 Ceiling Plenum Zone,            !- Zone Name
  Outdoors,                               !- Outside Boundary Condition
  ,                                       !- Outside Boundary Condition Object
  SunExposed,                             !- Sun Exposure
  WindExposed,                            !- Wind Exposure
  ,                                       !- View Factor to Ground
  ,                                       !- Number of Vertices
  3.81953802092616, 1.71780844593706, 3.9624, !- X,Y,Z Vertex 1 {m}
  4.5517885588319, 3.12873898197307, 3.9624, !- X,Y,Z Vertex 2 {m}
  3.58098410934131, 6.59527952160355, 3.9624, !- X,Y,Z Vertex 3 {m}
  2.01619547202773, 7.39974280298822, 3.9624, !- X,Y,Z Vertex 4 {m}
  1.05119693504892, 5.80050051033377, 3.9624, !- X,Y,Z Vertex 5 {m}
  1.87972377997297, 2.70489411795832, 3.9624; !- X,Y,Z Vertex 6 {m}

BuildingSurface:Detailed,
  Level 0 Open area 1 Ceiling Plenum DroppedCeiling, !- Name
  Ceiling,                                !- Surface Type
  Default interior ceiling,               !- Construction Name
  Level 0 Ceiling Plenum Zone,            !- Zone Name
  Surface,                                !- Outside Boundary Condition
  Open area 1 DroppedCeiling,             !- Outside Boundary Condition Object
  NoSun,                                  !- Sun Exposure
  NoWind,                                 !- Wind Exposure
  ,                                       !- View Factor to Ground
  ,                                       !- Number of Vertices
  -1.75229281438252, 1.68571050700354, 3.3528, !- X,Y,Z Vertex 1 {m}
  1.87972377997297, 2.70489411795832, 3.3528, !- X,Y,Z Vertex 2 {m}
  1.05119693504892, 5.80050051033377, 3.3528, !- X,Y,Z Vertex 3 {m}
  2.01619547202773, 7.39974280298822, 3.3528, !- X,Y,Z Vertex 4 {m}
  0.400905437957447, 8.23016906886034, 3.3528, !- X,Y,Z Vertex 5 {m}
  -0.23228008090422, 10.5959252068656, 3.3528, !- X,Y,Z Vertex 6 {m}
  -3.99382160257704, 9.58916596947629, 3.3528, !- X,Y,Z Vertex 7 {m}
  -3.43984006204633, 7.51933783343924, 3.3528, !- X,Y,Z Vertex 8 {m}
  -4.60759102795308, 5.55161104755255, 3.3528, !- X,Y,Z Vertex 9 {m}
  -2.66776154875701, 4.77112386361279, 3.3528; !- X,Y,Z Vertex 10 {m}

BuildingSurface:Detailed,
  Level 0 Open area 1 Ceiling Plenum RoofCeiling, !- Name
  Roof,                                   !- Surface Type
  Calibrated Exterior EXTERIOR-ROOF,      !- Construction Name
  Level 0 Ceiling Plenum Zone,            !- Zone Name
  Outdoors,                               !- Outside Boundary Condition
  ,                                       !- Outside Boundary Condition Object
  SunExposed,                             !- Sun Exposure
  WindExposed,                            !- Wind Exposure
  ,                                       !- View Factor to Ground
  ,                                       !- Number of Vertices
  -1.75229281438252, 1.68571050700354, 3.9624, !- X,Y,Z Vertex 1 {m}
  1.87972377997297, 2.70489411795832, 3.9624, !- X,Y,Z Vertex 2 {m}
  1.05119693504892, 5.80050051033377, 3.9624, !- X,Y,Z Vertex 3 {m}
  2.01619547202773, 7.39974280298822, 3.9624, !- X,Y,Z Vertex 4 {m}
  0.400905437957447, 8.23016906886034, 3.9624, !- X,Y,Z Vertex 5 {m}
  -0.23228008090422, 10.5959252068656, 3.9624, !- X,Y,Z Vertex 6 {m}
  -3.99382160257704, 9.58916596947629, 3.9624, !- X,Y,Z Vertex 7 {m}
  -3.43984006204633, 7.51933783343924, 3.9624, !- X,Y,Z Vertex 8 {m}
  -4.60759102795308, 5.55161104755255, 3.9624, !- X,Y,Z Vertex 9 {m}
  -2.66776154875701, 4.77112386361279, 3.9624; !- X,Y,Z Vertex 10 {m}

BuildingSurface:Detailed,
  Level 0 Small office 1 Ceiling Plenum DroppedCeiling, !- Name
  Ceiling,                                !- Surface Type
  Default interior ceiling,               !- Construction Name
  Level 0 Ceiling Plenum Zone,            !- Zone Name
  Surface,                                !- Outside Boundary Condition
  Small office 1 DroppedCeiling,          !- Outside Boundary Condition Object
  NoSun,                                  !- Sun Exposure
  NoWind,                                 !- Wind Exposure
  ,                                       !- View Factor to Ground
  ,                                       !- Number of Vertices
  -1.06834350757917, -1.3737012489499, 3.3528, !- X,Y,Z Vertex 1 {m}
  2.71403435440783, -0.412320942829973, 3.3528, !- X,Y,Z Vertex 2 {m}
  3.81953802092616, 1.71780844593706, 3.3528, !- X,Y,Z Vertex 3 {m}
  1.87972377997297, 2.70489411795832, 3.3528, !- X,Y,Z Vertex 4 {m}
  -1.75229281438252, 1.68571050700354, 3.3528, !- X,Y,Z Vertex 5 {m}
  -3.22316180755986, -0.0825408648487301, 3.3528; !- X,Y,Z Vertex 6 {m}

BuildingSurface:Detailed,
  Level 0 Small office 1 Ceiling Plenum RoofCeiling, !- Name
  Roof,                                   !- Surface Type
  Calibrated Exterior EXTERIOR-ROOF,      !- Construction Name
  Level 0 Ceiling Plenum Zone,            !- Zone Name
  Outdoors,                               !- Outside Boundary Condition
  ,                                       !- Outside Boundary Condition Object
  SunExposed,                             !- Sun Exposure
  WindExposed,                            !- Wind Exposure
  ,                                       !- View Factor to Ground
  ,                                       !- Number of Vertices
  -1.06834350757917, -1.3737012489499, 3.9624, !- X,Y,Z Vertex 1 {m}
  2.71403435440783, -0.412320942829973, 3.9624, !- X,Y,Z Vertex 2 {m}
  3.81953802092616, 1.71780844593706, 3.9624, !- X,Y,Z Vertex 3 {m}
  1.87972377997297, 2.70489411795832, 3.9624, !- X,Y,Z Vertex 4 {m}
  -1.75229281438252, 1.68571050700354, 3.9624, !- X,Y,Z Vertex 5 {m}
  -3.22316180755986, -0.0825408648487301, 3.9624; !- X,Y,Z Vertex 6 {m}

BuildingSurface:Detailed,
  Level 0 Utility 1 Ceiling Plenum DroppedCeiling, !- Name
  Ceiling,                                !- Surface Type
  Default interior ceiling,               !- Construction Name
  Level 0 Ceiling Plenum Zone,            !- Zone Name
  Surface,                                !- Outside Boundary Condition
  Utility 1 DroppedCeiling,               !- Outside Boundary Condition Object
  NoSun,                                  !- Sun Exposure
  NoWind,                                 !- Wind Exposure
  ,                                       !- View Factor to Ground
  ,                                       !- Number of Vertices
  -3.22316180755986, -0.0825408648487301, 3.3528, !- X,Y,Z Vertex 1 {m}
  -1.75229281438252, 1.68571050700354, 3.3528, !- X,Y,Z Vertex 2 {m}
  -2.66776154875701, 4.77112386361279, 3.3528, !- X,Y,Z Vertex 3 {m}
  -4.60759102795308, 5.55161104755255, 3.3528, !- X,Y,Z Vertex 4 {m}
  -6.73425312491624, 2.02129396567682, 3.3528; !- X,Y,Z Vertex 5 {m}

BuildingSurface:Detailed,
  Level 0 Utility 1 Ceiling Plenum RoofCeiling, !- Name
  Roof,                                   !- Surface Type
  Calibrated Exterior EXTERIOR-ROOF,      !- Construction Name
  Level 0 Ceiling Plenum Zone,            !- Zone Name
  Outdoors,                               !- Outside Boundary Condition
  ,                                       !- Outside Boundary Condition Object
  SunExposed,                             !- Sun Exposure
  WindExposed,                            !- Wind Exposure
  ,                                       !- View Factor to Ground
  ,                                       !- Number of Vertices
  -3.22316180755986, -0.0825408648487301, 3.9624, !- X,Y,Z Vertex 1 {m}
  -1.75229281438252, 1.68571050700354, 3.9624, !- X,Y,Z Vertex 2 {m}
  -2.66776154875701, 4.77112386361279, 3.9624, !- X,Y,Z Vertex 3 {m}
  -4.60759102795308, 5.55161104755255, 3.9624, !- X,Y,Z Vertex 4 {m}
  -6.73425312491624, 2.02129396567682, 3.9624; !- X,Y,Z Vertex 5 {m}

BuildingSurface:Detailed,
  Level0 Entry way  Ceiling Plenum AbvClgPlnmWall 4, !- Name
  Wall,                                   !- Surface Type
  Calibrated Exterior EXTERIOR-WALL,      !- Construction Name
  Level 0 Ceiling Plenum Zone,            !- Zone Name
  Outdoors,                               !- Outside Boundary Condition
  ,                                       !- Outside Boundary Condition Object
  SunExposed,                             !- Sun Exposure
  WindExposed,                            !- Wind Exposure
  ,                                       !- View Factor to Ground
  ,                                       !- Number of Vertices
  3.58098410934131, 6.59527952160355, 3.9624, !- X,Y,Z Vertex 1 {m}
  3.58098410934131, 6.59527952160355, 3.3528, !- X,Y,Z Vertex 2 {m}
  2.01619547202773, 7.39974280298822, 3.3528, !- X,Y,Z Vertex 3 {m}
  2.01619547202773, 7.39974280298822, 3.9624; !- X,Y,Z Vertex 4 {m}

BuildingSurface:Detailed,
  Level0 Entry way  Ceiling Plenum AbvClgPlnmWall 5, !- Name
  Wall,                                   !- Surface Type
  Calibrated Exterior EXTERIOR-WALL,      !- Construction Name
  Level 0 Ceiling Plenum Zone,            !- Zone Name
  Outdoors,                               !- Outside Boundary Condition
  ,                                       !- Outside Boundary Condition Object
  SunExposed,                             !- Sun Exposure
  WindExposed,                            !- Wind Exposure
  ,                                       !- View Factor to Ground
  ,                                       !- Number of Vertices
  4.5517885588319, 3.12873898197307, 3.9624, !- X,Y,Z Vertex 1 {m}
  4.5517885588319, 3.12873898197307, 3.3528, !- X,Y,Z Vertex 2 {m}
  3.58098410934131, 6.59527952160355, 3.3528, !- X,Y,Z Vertex 3 {m}
  3.58098410934131, 6.59527952160355, 3.9624; !- X,Y,Z Vertex 4 {m}

BuildingSurface:Detailed,
  Level0 Entry way  Ceiling Plenum AbvClgPlnmWall 6, !- Name
  Wall,                                   !- Surface Type
  Calibrated Exterior EXTERIOR-WALL,      !- Construction Name
  Level 0 Ceiling Plenum Zone,            !- Zone Name
  Outdoors,                               !- Outside Boundary Condition
  ,                                       !- Outside Boundary Condition Object
  SunExposed,                             !- Sun Exposure
  WindExposed,                            !- Wind Exposure
  ,                                       !- View Factor to Ground
  ,                                       !- Number of Vertices
  3.81953802092616, 1.71780844593706, 3.9624, !- X,Y,Z Vertex 1 {m}
  3.81953802092616, 1.71780844593706, 3.3528, !- X,Y,Z Vertex 2 {m}
  4.5517885588319, 3.12873898197307, 3.3528, !- X,Y,Z Vertex 3 {m}
  4.5517885588319, 3.12873898197307, 3.9624; !- X,Y,Z Vertex 4 {m}

BuildingSurface:Detailed,
  Level0 Open area 1 Ceiling Plenum AbvClgPlnmWall 3, !- Name
  Wall,                                   !- Surface Type
  Calibrated Exterior EXTERIOR-WALL,      !- Construction Name
  Level 0 Ceiling Plenum Zone,            !- Zone Name
  Outdoors,                               !- Outside Boundary Condition
  ,                                       !- Outside Boundary Condition Object
  SunExposed,                             !- Sun Exposure
  WindExposed,                            !- Wind Exposure
  ,                                       !- View Factor to Ground
  ,                                       !- Number of Vertices
  -3.43984006204633, 7.51933783343924, 3.9624, !- X,Y,Z Vertex 1 {m}
  -3.43984006204633, 7.51933783343924, 3.3528, !- X,Y,Z Vertex 2 {m}
  -4.60759102795308, 5.55161104755255, 3.3528, !- X,Y,Z Vertex 3 {m}
  -4.60759102795308, 5.55161104755255, 3.9624; !- X,Y,Z Vertex 4 {m}

BuildingSurface:Detailed,
  Level0 Open area 1 Ceiling Plenum AbvClgPlnmWall 4, !- Name
  Wall,                                   !- Surface Type
  Calibrated Exterior EXTERIOR-WALL,      !- Construction Name
  Level 0 Ceiling Plenum Zone,            !- Zone Name
  Outdoors,                               !- Outside Boundary Condition
  ,                                       !- Outside Boundary Condition Object
  SunExposed,                             !- Sun Exposure
  WindExposed,                            !- Wind Exposure
  ,                                       !- View Factor to Ground
  ,                                       !- Number of Vertices
  -3.99382160257704, 9.58916596947629, 3.9624, !- X,Y,Z Vertex 1 {m}
  -3.99382160257704, 9.58916596947629, 3.3528, !- X,Y,Z Vertex 2 {m}
  -3.43984006204633, 7.51933783343924, 3.3528, !- X,Y,Z Vertex 3 {m}
  -3.43984006204633, 7.51933783343924, 3.9624; !- X,Y,Z Vertex 4 {m}

BuildingSurface:Detailed,
  Level0 Open area 1 Ceiling Plenum AbvClgPlnmWall 5, !- Name
  Wall,                                   !- Surface Type
  Calibrated Exterior EXTERIOR-WALL,      !- Construction Name
  Level 0 Ceiling Plenum Zone,            !- Zone Name
  Outdoors,                               !- Outside Boundary Condition
  ,                                       !- Outside Boundary Condition Object
  SunExposed,                             !- Sun Exposure
  WindExposed,                            !- Wind Exposure
  ,                                       !- View Factor to Ground
  ,                                       !- Number of Vertices
  -0.23228008090422, 10.5959252068656, 3.9624, !- X,Y,Z Vertex 1 {m}
  -0.23228008090422, 10.5959252068656, 3.3528, !- X,Y,Z Vertex 2 {m}
  -3.99382160257704, 9.58916596947629, 3.3528, !- X,Y,Z Vertex 3 {m}
  -3.99382160257704, 9.58916596947629, 3.9624; !- X,Y,Z Vertex 4 {m}

BuildingSurface:Detailed,
  Level0 Open area 1 Ceiling Plenum AbvClgPlnmWall 6, !- Name
  Wall,                                   !- Surface Type
  Calibrated Exterior EXTERIOR-WALL,      !- Construction Name
  Level 0 Ceiling Plenum Zone,            !- Zone Name
  Outdoors,                               !- Outside Boundary Condition
  ,                                       !- Outside Boundary Condition Object
  SunExposed,                             !- Sun Exposure
  WindExposed,                            !- Wind Exposure
  ,                                       !- View Factor to Ground
  ,                                       !- Number of Vertices
  0.400905437957447, 8.23016906886034, 3.9624, !- X,Y,Z Vertex 1 {m}
  0.400905437957447, 8.23016906886034, 3.3528, !- X,Y,Z Vertex 2 {m}
  -0.23228008090422, 10.5959252068656, 3.3528, !- X,Y,Z Vertex 3 {m}
  -0.23228008090422, 10.5959252068656, 3.9624; !- X,Y,Z Vertex 4 {m}

BuildingSurface:Detailed,
  Level0 Open area 1 Ceiling Plenum AbvClgPlnmWall 7, !- Name
  Wall,                                   !- Surface Type
  Calibrated Exterior EXTERIOR-WALL,      !- Construction Name
  Level 0 Ceiling Plenum Zone,            !- Zone Name
  Outdoors,                               !- Outside Boundary Condition
  ,                                       !- Outside Boundary Condition Object
  SunExposed,                             !- Sun Exposure
  WindExposed,                            !- Wind Exposure
  ,                                       !- View Factor to Ground
  ,                                       !- Number of Vertices
  2.01619547202773, 7.39974280298822, 3.9624, !- X,Y,Z Vertex 1 {m}
  2.01619547202773, 7.39974280298822, 3.3528, !- X,Y,Z Vertex 2 {m}
  0.400905437957447, 8.23016906886034, 3.3528, !- X,Y,Z Vertex 3 {m}
  0.400905437957447, 8.23016906886034, 3.9624; !- X,Y,Z Vertex 4 {m}

BuildingSurface:Detailed,
  Level0 Small office 1 Ceiling Plenum AbvClgPlnmWall 1, !- Name
  Wall,                                   !- Surface Type
  Calibrated Exterior EXTERIOR-WALL,      !- Construction Name